# hf/3-21g

Initial structure

0 1
 C                 -1.31027252    1.80293487    0.00000000
 H                 -0.95361809    0.79412487    0.00000000
 H                 -0.95359968    2.30733307   -0.87365150
 H                 -2.38027252    1.80294806    0.00000000
 C                 -0.79693030    2.52889115    1.25740497
 H                  0.27306968    2.52870858    1.25750243
 H                 -1.15342535    3.53775748    1.25730739
 H                 -1.15376256    2.02460534    2.13105625

